<?xml version='1.0' encoding='utf-8'?>
<routes><vType id="default" accel="2.6" decel="4.5" sigma="0.5" length="5.0" minGap="2.5" maxSpeed="13.89" /><flow id="flow_NB_L" type="default" from="NB_in" to="EB_out" begin="0" end="3600" vehsPerHour="432" departLane="best" departSpeed="max" departPos="random_free" /><flow id="flow_NB_T" type="default" from="NB_in" to="NB_out" begin="0" end="3600" vehsPerHour="2016" departLane="best" departSpeed="max" departPos="random_free" /><flow id="flow_NB_R" type="default" from="NB_in" to="WB_out" begin="0" end="3600" vehsPerHour="432" departLane="best" departSpeed="max" departPos="random_free" /><flow id="flow_SB_L" type="default" from="SB_in" to="WB_out" begin="0" end="3600" vehsPerHour="414" departLane="best" departSpeed="max" departPos="random_free" /><flow id="flow_SB_T" type="default" from="SB_in" to="SB_out" begin="0" end="3600" vehsPerHour="1932" departLane="best" departSpeed="max" departPos="random_free" /><flow id="flow_SB_R" type="default" from="SB_in" to="EB_out" begin="0" end="3600" vehsPerHour="414" departLane="best" departSpeed="max" departPos="random_free" /><flow id="flow_EB_L" type="default" from="EB_in" to="NB_out" begin="0" end="3600" vehsPerHour="234" departLane="best" departSpeed="max" departPos="random_free" /><flow id="flow_EB_T" type="default" from="EB_in" to="EB_out" begin="0" end="3600" vehsPerHour="1092" departLane="best" departSpeed="max" departPos="random_free" /><flow id="flow_EB_R" type="default" from="EB_in" to="SB_out" begin="0" end="3600" vehsPerHour="234" departLane="best" departSpeed="max" departPos="random_free" /><flow id="flow_WB_L" type="default" from="WB_in" to="SB_out" begin="0" end="3600" vehsPerHour="522" departLane="best" departSpeed="max" departPos="random_free" /><flow id="flow_WB_T" type="default" from="WB_in" to="WB_out" begin="0" end="3600" vehsPerHour="2436" departLane="best" departSpeed="max" departPos="random_free" /><flow id="flow_WB_R" type="default" from="WB_in" to="NB_out" begin="0" end="3600" vehsPerHour="522" departLane="best" departSpeed="max" departPos="random_free" /></routes>