<?xml version='1.0' encoding='utf-8'?>
<nodes xmlns:xsi="http://www.w3.org/2001/XMLSchema-instance" xsi:noNamespaceSchemaLocation="http://sumo.dlr.de/xsd/nodes_file.xsd"><node id="north" x="250.0" y="0" type="priority" /><node id="south" x="250.0" y="500.0" type="priority" /><node id="center" x="250.0" y="250.0" type="traffic_light" shape="200,250 215,285 250,300 285,285 300,250 285,215 250,200 215,215" /><node id="west" x="0" y="250.0" type="priority" /><node id="east" x="500.0" y="250.0" type="priority" /></nodes>