<?xml version='1.0' encoding='utf-8'?>
<edges xmlns:xsi="http://www.w3.org/2001/XMLSchema-instance" xsi:noNamespaceSchemaLocation="http://sumo.dlr.de/xsd/edges_file.xsd"><edge id="WB_in" from="west" to="center" priority="13" numLanes="3" speed="13.89" /><edge id="WB_out" from="center" to="east" priority="13" numLanes="3" speed="13.89" /><edge id="SB_in" from="south" to="center" priority="13" numLanes="3" speed="13.89" /><edge id="SB_out" from="center" to="north" priority="13" numLanes="3" speed="13.89" /><edge id="EB_in" from="east" to="center" priority="13" numLanes="3" speed="13.89" /><edge id="EB_out" from="center" to="west" priority="13" numLanes="3" speed="13.89" /><edge id="NB_in" from="north" to="center" priority="13" numLanes="3" speed="13.89" /><edge id="NB_out" from="center" to="south" priority="13" numLanes="3" speed="13.89" /></edges>