<?xml version='1.0' encoding='utf-8'?>
<routes><vType id="default" accel="2.6" decel="4.5" sigma="0.5" length="5.0" minGap="2.5" maxSpeed="13.89" /><flow id="flow_NB" type="default" from="NB_in" to="EB_out" begin="0" end="3600" vehsPerHour="2880" departLane="best" departSpeed="max" /><flow id="flow_SB" type="default" from="SB_in" to="WB_out" begin="0" end="3600" vehsPerHour="2760" departLane="best" departSpeed="max" /><flow id="flow_EB" type="default" from="EB_in" to="SB_out" begin="0" end="3600" vehsPerHour="1560" departLane="best" departSpeed="max" /><flow id="flow_WB" type="default" from="WB_in" to="NB_out" begin="0" end="3600" vehsPerHour="3480" departLane="best" departSpeed="max" /></routes>