<?xml version="1.0" encoding="UTF-8"?>

<!-- generated on 2025-11-12 19:13:40 by Eclipse SUMO netconvert Version 1.24.0
<netconvertConfiguration xmlns:xsi="http://www.w3.org/2001/XMLSchema-instance" xsi:noNamespaceSchemaLocation="http://sumo.dlr.de/xsd/netconvertConfiguration.xsd">

    <input>
        <node-files value="intersection.nod.xml"/>
        <edge-files value="intersection.edg.xml"/>
        <connection-files value="intersection.con.xml"/>
    </input>

    <output>
        <output-file value="sumo_network.net.xml"/>
    </output>

    <processing>
        <lefthand value="true"/>
    </processing>

    <junctions>
        <no-turnarounds value="true"/>
    </junctions>

</netconvertConfiguration>
-->

<net version="1.20" junctionCornerDetail="5" lefthand="true" limitTurnSpeed="5.50" xmlns:xsi="http://www.w3.org/2001/XMLSchema-instance" xsi:noNamespaceSchemaLocation="http://sumo.dlr.de/xsd/net_file.xsd">

    <location netOffset="0.00,-0.00" convBoundary="0.00,-0.00,500.00,500.00" origBoundary="0.00,0.00,500.00,500.00" projParameter="!"/>

    <edge id=":center_0" function="internal">
        <lane id=":center_0_0" index="0" speed="13.89" length="62.21" shape="242.00,203.43 239.59,220.30 232.36,232.36 220.30,239.59 203.43,242.00"/>
    </edge>
    <edge id=":center_1" function="internal">
        <lane id=":center_1_0" index="0" speed="13.89" length="95.89" shape="242.00,203.43 242.00,296.57"/>
        <lane id=":center_1_1" index="1" speed="13.89" length="95.89" shape="245.20,202.06 245.20,297.94"/>
        <lane id=":center_1_2" index="2" speed="13.89" length="95.89" shape="248.40,200.69 248.40,299.31"/>
    </edge>
    <edge id=":center_4" function="internal">
        <lane id=":center_4_0" index="0" speed="13.89" length="5.01" shape="248.40,200.69 249.11,205.65"/>
    </edge>
    <edge id=":center_20" function="internal">
        <lane id=":center_20_0" index="0" speed="13.89" length="77.10" shape="249.11,205.65 251.58,222.96 261.13,238.87 277.04,248.42 299.31,251.60"/>
    </edge>
    <edge id=":center_5" function="internal">
        <lane id=":center_5_0" index="0" speed="13.89" length="62.21" shape="296.57,242.00 279.70,239.59 267.64,232.36 260.41,220.30 258.00,203.43"/>
    </edge>
    <edge id=":center_6" function="internal">
        <lane id=":center_6_0" index="0" speed="13.89" length="95.89" shape="296.57,242.00 203.43,242.00"/>
        <lane id=":center_6_1" index="1" speed="13.89" length="95.89" shape="297.94,245.20 202.06,245.20"/>
        <lane id=":center_6_2" index="2" speed="13.89" length="95.89" shape="299.31,248.40 200.69,248.40"/>
    </edge>
    <edge id=":center_9" function="internal">
        <lane id=":center_9_0" index="0" speed="13.89" length="5.01" shape="299.31,248.40 294.35,249.11"/>
    </edge>
    <edge id=":center_21" function="internal">
        <lane id=":center_21_0" index="0" speed="13.89" length="77.10" shape="294.35,249.11 277.04,251.58 261.13,261.13 251.58,277.04 248.40,299.31"/>
    </edge>
    <edge id=":center_10" function="internal">
        <lane id=":center_10_0" index="0" speed="13.89" length="62.21" shape="258.00,296.57 260.41,279.70 267.64,267.64 279.70,260.41 296.57,258.00"/>
    </edge>
    <edge id=":center_11" function="internal">
        <lane id=":center_11_0" index="0" speed="13.89" length="95.89" shape="258.00,296.57 258.00,203.43"/>
        <lane id=":center_11_1" index="1" speed="13.89" length="95.89" shape="254.80,297.94 254.80,202.06"/>
        <lane id=":center_11_2" index="2" speed="13.89" length="95.89" shape="251.60,299.31 251.60,200.69"/>
    </edge>
    <edge id=":center_14" function="internal">
        <lane id=":center_14_0" index="0" speed="13.89" length="5.01" shape="251.60,299.31 250.89,294.35"/>
    </edge>
    <edge id=":center_22" function="internal">
        <lane id=":center_22_0" index="0" speed="13.89" length="77.10" shape="250.89,294.35 248.42,277.04 238.87,261.13 222.96,251.58 200.69,248.40"/>
    </edge>
    <edge id=":center_15" function="internal">
        <lane id=":center_15_0" index="0" speed="13.89" length="62.21" shape="203.43,258.00 220.30,260.41 232.36,267.64 239.59,279.70 242.00,296.57"/>
    </edge>
    <edge id=":center_16" function="internal">
        <lane id=":center_16_0" index="0" speed="13.89" length="95.89" shape="203.43,258.00 296.57,258.00"/>
        <lane id=":center_16_1" index="1" speed="13.89" length="95.89" shape="202.06,254.80 297.94,254.80"/>
        <lane id=":center_16_2" index="2" speed="13.89" length="95.89" shape="200.69,251.60 299.31,251.60"/>
    </edge>
    <edge id=":center_19" function="internal">
        <lane id=":center_19_0" index="0" speed="13.89" length="5.01" shape="200.69,251.60 205.65,250.89"/>
    </edge>
    <edge id=":center_23" function="internal">
        <lane id=":center_23_0" index="0" speed="13.89" length="77.10" shape="205.65,250.89 222.96,248.42 238.87,238.87 248.42,222.96 251.60,200.69"/>
    </edge>

    <edge id="EB_in" from="east" to="center" priority="13">
        <lane id="EB_in_0" index="0" speed="13.89" length="202.06" shape="500.00,242.00 296.57,242.00"/>
        <lane id="EB_in_1" index="1" speed="13.89" length="202.06" shape="500.00,245.20 297.94,245.20"/>
        <lane id="EB_in_2" index="2" speed="13.89" length="202.06" shape="500.00,248.40 299.31,248.40"/>
    </edge>
    <edge id="EB_out" from="center" to="west" priority="13">
        <lane id="EB_out_0" index="0" speed="13.89" length="202.06" shape="203.43,242.00 0.00,242.00"/>
        <lane id="EB_out_1" index="1" speed="13.89" length="202.06" shape="202.06,245.20 0.00,245.20"/>
        <lane id="EB_out_2" index="2" speed="13.89" length="202.06" shape="200.69,248.40 0.00,248.40"/>
    </edge>
    <edge id="NB_in" from="north" to="center" priority="13">
        <lane id="NB_in_0" index="0" speed="13.89" length="202.06" shape="242.00,-0.00 242.00,203.43"/>
        <lane id="NB_in_1" index="1" speed="13.89" length="202.06" shape="245.20,-0.00 245.20,202.06"/>
        <lane id="NB_in_2" index="2" speed="13.89" length="202.06" shape="248.40,-0.00 248.40,200.69"/>
    </edge>
    <edge id="NB_out" from="center" to="south" priority="13">
        <lane id="NB_out_0" index="0" speed="13.89" length="202.06" shape="242.00,296.57 242.00,500.00"/>
        <lane id="NB_out_1" index="1" speed="13.89" length="202.06" shape="245.20,297.94 245.20,500.00"/>
        <lane id="NB_out_2" index="2" speed="13.89" length="202.06" shape="248.40,299.31 248.40,500.00"/>
    </edge>
    <edge id="SB_in" from="south" to="center" priority="13">
        <lane id="SB_in_0" index="0" speed="13.89" length="202.06" shape="258.00,500.00 258.00,296.57"/>
        <lane id="SB_in_1" index="1" speed="13.89" length="202.06" shape="254.80,500.00 254.80,297.94"/>
        <lane id="SB_in_2" index="2" speed="13.89" length="202.06" shape="251.60,500.00 251.60,299.31"/>
    </edge>
    <edge id="SB_out" from="center" to="north" priority="13">
        <lane id="SB_out_0" index="0" speed="13.89" length="202.06" shape="258.00,203.43 258.00,-0.00"/>
        <lane id="SB_out_1" index="1" speed="13.89" length="202.06" shape="254.80,202.06 254.80,-0.00"/>
        <lane id="SB_out_2" index="2" speed="13.89" length="202.06" shape="251.60,200.69 251.60,-0.00"/>
    </edge>
    <edge id="WB_in" from="west" to="center" priority="13">
        <lane id="WB_in_0" index="0" speed="13.89" length="202.06" shape="0.00,258.00 203.43,258.00"/>
        <lane id="WB_in_1" index="1" speed="13.89" length="202.06" shape="0.00,254.80 202.06,254.80"/>
        <lane id="WB_in_2" index="2" speed="13.89" length="202.06" shape="0.00,251.60 200.69,251.60"/>
    </edge>
    <edge id="WB_out" from="center" to="east" priority="13">
        <lane id="WB_out_0" index="0" speed="13.89" length="202.06" shape="296.57,258.00 500.00,258.00"/>
        <lane id="WB_out_1" index="1" speed="13.89" length="202.06" shape="297.94,254.80 500.00,254.80"/>
        <lane id="WB_out_2" index="2" speed="13.89" length="202.06" shape="299.31,251.60 500.00,251.60"/>
    </edge>

    <tlLogic id="center" type="static" programID="0" offset="0">
        <phase duration="38" state="GGGGgrrrrrGGGGgrrrrr"/>
        <phase duration="3"  state="yyyyyrrrrryyyyyrrrrr"/>
        <phase duration="4"  state="rrrrrrrrrrrrrrrrrrrr"/>
        <phase duration="38" state="rrrrrGGGGgrrrrrGGGGg"/>
        <phase duration="3"  state="rrrrryyyyyrrrrryyyyy"/>
        <phase duration="4"  state="rrrrrrrrrrrrrrrrrrrr"/>
    </tlLogic>

    <junction id="center" type="traffic_light" x="250.00" y="250.00" incLanes="NB_in_0 NB_in_1 NB_in_2 EB_in_0 EB_in_1 EB_in_2 SB_in_0 SB_in_1 SB_in_2 WB_in_0 WB_in_1 WB_in_2" intLanes=":center_0_0 :center_1_0 :center_1_1 :center_1_2 :center_20_0 :center_5_0 :center_6_0 :center_6_1 :center_6_2 :center_21_0 :center_10_0 :center_11_0 :center_11_1 :center_11_2 :center_22_0 :center_15_0 :center_16_0 :center_16_1 :center_16_2 :center_23_0" shape="200.00,250.00 215.00,285.00 250.00,300.00 285.00,285.00 300.00,250.00 285.00,215.00 250.00,200.00 215.00,215.00" customShape="1">
        <request index="0"  response="00000000000000000000" foes="00000000000111000000" cont="0"/>
        <request index="1"  response="10000000001000000000" foes="11111100001111000000" cont="0"/>
        <request index="2"  response="10000000001000000000" foes="11111100001111000000" cont="0"/>
        <request index="3"  response="10000000001000000000" foes="11111100001111000000" cont="0"/>
        <request index="4"  response="10000011101000000000" foes="11110011101111000000" cont="1"/>
        <request index="5"  response="00000011100000000000" foes="00000011100000000000" cont="0"/>
        <request index="6"  response="00000111100000011111" foes="10000111100000011111" cont="0"/>
        <request index="7"  response="00000111100000011111" foes="10000111100000011111" cont="0"/>
        <request index="8"  response="00000111100000011111" foes="10000111100000011111" cont="0"/>
        <request index="9"  response="01110111100000011110" foes="01110111100000011110" cont="1"/>
        <request index="10" response="00000000000000000000" foes="01110000000000000000" cont="0"/>
        <request index="11" response="10000000001000000000" foes="11110000001111110000" cont="0"/>
        <request index="12" response="10000000001000000000" foes="11110000001111110000" cont="0"/>
        <request index="13" response="10000000001000000000" foes="11110000001111110000" cont="0"/>
        <request index="14" response="10000000001000001110" foes="11110000001111001110" cont="1"/>
        <request index="15" response="00000000000000001110" foes="00000000000000001110" cont="0"/>
        <request index="16" response="00000111110000011110" foes="00000111111000011110" cont="0"/>
        <request index="17" response="00000111110000011110" foes="00000111111000011110" cont="0"/>
        <request index="18" response="00000111110000011110" foes="00000111111000011110" cont="0"/>
        <request index="19" response="00000111100111011110" foes="00000111100111011110" cont="1"/>
    </junction>
    <junction id="east" type="dead_end" x="500.00" y="250.00" incLanes="WB_out_0 WB_out_1 WB_out_2" intLanes="" shape="500.00,250.00 500.00,259.60 500.00,250.00"/>
    <junction id="north" type="dead_end" x="250.00" y="-0.00" incLanes="SB_out_0 SB_out_1 SB_out_2" intLanes="" shape="250.00,-0.00 259.60,-0.00 250.00,-0.00"/>
    <junction id="south" type="dead_end" x="250.00" y="500.00" incLanes="NB_out_0 NB_out_1 NB_out_2" intLanes="" shape="250.00,500.00 240.40,500.00 250.00,500.00"/>
    <junction id="west" type="dead_end" x="0.00" y="250.00" incLanes="EB_out_0 EB_out_1 EB_out_2" intLanes="" shape="0.00,250.00 0.00,240.40 0.00,250.00"/>

    <junction id=":center_20_0" type="internal" x="249.11" y="205.65" incLanes=":center_4_0 SB_in_0 SB_in_1 SB_in_2" intLanes=":center_6_0 :center_6_1 :center_6_2 :center_9_0 :center_10_0 :center_11_0 :center_11_1 :center_11_2 :center_16_0 :center_16_1 :center_16_2 :center_19_0"/>
    <junction id=":center_21_0" type="internal" x="294.35" y="249.11" incLanes=":center_9_0 WB_in_0 WB_in_1 WB_in_2" intLanes=":center_1_0 :center_1_1 :center_1_2 :center_4_0 :center_11_0 :center_11_1 :center_11_2 :center_14_0 :center_15_0 :center_16_0 :center_16_1 :center_16_2"/>
    <junction id=":center_22_0" type="internal" x="250.89" y="294.35" incLanes=":center_14_0 NB_in_0 NB_in_1 NB_in_2" intLanes=":center_0_0 :center_1_0 :center_1_1 :center_1_2 :center_6_0 :center_6_1 :center_6_2 :center_9_0 :center_16_0 :center_16_1 :center_16_2 :center_19_0"/>
    <junction id=":center_23_0" type="internal" x="205.65" y="250.89" incLanes=":center_19_0 EB_in_0 EB_in_1 EB_in_2" intLanes=":center_1_0 :center_1_1 :center_1_2 :center_4_0 :center_5_0 :center_6_0 :center_6_1 :center_6_2 :center_11_0 :center_11_1 :center_11_2 :center_14_0"/>

    <connection from="EB_in" to="SB_out" fromLane="0" toLane="0" via=":center_5_0" tl="center" linkIndex="5" dir="l" state="o"/>
    <connection from="EB_in" to="EB_out" fromLane="0" toLane="0" via=":center_6_0" tl="center" linkIndex="6" dir="s" state="o"/>
    <connection from="EB_in" to="EB_out" fromLane="1" toLane="1" via=":center_6_1" tl="center" linkIndex="7" dir="s" state="o"/>
    <connection from="EB_in" to="EB_out" fromLane="2" toLane="2" via=":center_6_2" tl="center" linkIndex="8" dir="s" state="o"/>
    <connection from="EB_in" to="NB_out" fromLane="2" toLane="2" via=":center_9_0" tl="center" linkIndex="9" dir="r" state="o"/>
    <connection from="NB_in" to="EB_out" fromLane="0" toLane="0" via=":center_0_0" tl="center" linkIndex="0" dir="l" state="O"/>
    <connection from="NB_in" to="NB_out" fromLane="0" toLane="0" via=":center_1_0" tl="center" linkIndex="1" dir="s" state="O"/>
    <connection from="NB_in" to="NB_out" fromLane="1" toLane="1" via=":center_1_1" tl="center" linkIndex="2" dir="s" state="O"/>
    <connection from="NB_in" to="NB_out" fromLane="2" toLane="2" via=":center_1_2" tl="center" linkIndex="3" dir="s" state="O"/>
    <connection from="NB_in" to="WB_out" fromLane="2" toLane="2" via=":center_4_0" tl="center" linkIndex="4" dir="r" state="o"/>
    <connection from="SB_in" to="WB_out" fromLane="0" toLane="0" via=":center_10_0" tl="center" linkIndex="10" dir="l" state="O"/>
    <connection from="SB_in" to="SB_out" fromLane="0" toLane="0" via=":center_11_0" tl="center" linkIndex="11" dir="s" state="O"/>
    <connection from="SB_in" to="SB_out" fromLane="1" toLane="1" via=":center_11_1" tl="center" linkIndex="12" dir="s" state="O"/>
    <connection from="SB_in" to="SB_out" fromLane="2" toLane="2" via=":center_11_2" tl="center" linkIndex="13" dir="s" state="O"/>
    <connection from="SB_in" to="EB_out" fromLane="2" toLane="2" via=":center_14_0" tl="center" linkIndex="14" dir="r" state="o"/>
    <connection from="WB_in" to="NB_out" fromLane="0" toLane="0" via=":center_15_0" tl="center" linkIndex="15" dir="l" state="o"/>
    <connection from="WB_in" to="WB_out" fromLane="0" toLane="0" via=":center_16_0" tl="center" linkIndex="16" dir="s" state="o"/>
    <connection from="WB_in" to="WB_out" fromLane="1" toLane="1" via=":center_16_1" tl="center" linkIndex="17" dir="s" state="o"/>
    <connection from="WB_in" to="WB_out" fromLane="2" toLane="2" via=":center_16_2" tl="center" linkIndex="18" dir="s" state="o"/>
    <connection from="WB_in" to="SB_out" fromLane="2" toLane="2" via=":center_19_0" tl="center" linkIndex="19" dir="r" state="o"/>

    <connection from=":center_0" to="EB_out" fromLane="0" toLane="0" dir="l" state="M"/>
    <connection from=":center_1" to="NB_out" fromLane="0" toLane="0" dir="s" state="M"/>
    <connection from=":center_1" to="NB_out" fromLane="1" toLane="1" dir="s" state="M"/>
    <connection from=":center_1" to="NB_out" fromLane="2" toLane="2" dir="s" state="M"/>
    <connection from=":center_4" to="WB_out" fromLane="0" toLane="2" via=":center_20_0" dir="r" state="m"/>
    <connection from=":center_20" to="WB_out" fromLane="0" toLane="2" dir="r" state="M"/>
    <connection from=":center_5" to="SB_out" fromLane="0" toLane="0" dir="l" state="M"/>
    <connection from=":center_6" to="EB_out" fromLane="0" toLane="0" dir="s" state="M"/>
    <connection from=":center_6" to="EB_out" fromLane="1" toLane="1" dir="s" state="M"/>
    <connection from=":center_6" to="EB_out" fromLane="2" toLane="2" dir="s" state="M"/>
    <connection from=":center_9" to="NB_out" fromLane="0" toLane="2" via=":center_21_0" dir="r" state="m"/>
    <connection from=":center_21" to="NB_out" fromLane="0" toLane="2" dir="r" state="M"/>
    <connection from=":center_10" to="WB_out" fromLane="0" toLane="0" dir="l" state="M"/>
    <connection from=":center_11" to="SB_out" fromLane="0" toLane="0" dir="s" state="M"/>
    <connection from=":center_11" to="SB_out" fromLane="1" toLane="1" dir="s" state="M"/>
    <connection from=":center_11" to="SB_out" fromLane="2" toLane="2" dir="s" state="M"/>
    <connection from=":center_14" to="EB_out" fromLane="0" toLane="2" via=":center_22_0" dir="r" state="m"/>
    <connection from=":center_22" to="EB_out" fromLane="0" toLane="2" dir="r" state="M"/>
    <connection from=":center_15" to="NB_out" fromLane="0" toLane="0" dir="l" state="M"/>
    <connection from=":center_16" to="WB_out" fromLane="0" toLane="0" dir="s" state="M"/>
    <connection from=":center_16" to="WB_out" fromLane="1" toLane="1" dir="s" state="M"/>
    <connection from=":center_16" to="WB_out" fromLane="2" toLane="2" dir="s" state="M"/>
    <connection from=":center_19" to="SB_out" fromLane="0" toLane="2" via=":center_23_0" dir="r" state="m"/>
    <connection from=":center_23" to="SB_out" fromLane="0" toLane="2" dir="r" state="M"/>

</net>
