<?xml version="1.0" encoding="UTF-8"?>

<!-- generated on 2025-11-10 21:26:49 by Eclipse SUMO netconvert Version 1.24.0
<netconvertConfiguration xmlns:xsi="http://www.w3.org/2001/XMLSchema-instance" xsi:noNamespaceSchemaLocation="http://sumo.dlr.de/xsd/netconvertConfiguration.xsd">

    <input>
        <node-files value="intersection.nod.xml"/>
        <edge-files value="intersection.edg.xml"/>
    </input>

    <output>
        <output-file value="sumo_network.net.xml"/>
    </output>

    <junctions>
        <no-turnarounds value="true"/>
    </junctions>

</netconvertConfiguration>
-->

<net version="1.20" junctionCornerDetail="5" limitTurnSpeed="5.50" xmlns:xsi="http://www.w3.org/2001/XMLSchema-instance" xsi:noNamespaceSchemaLocation="http://sumo.dlr.de/xsd/net_file.xsd">

    <location netOffset="0.00,0.00" convBoundary="0.00,0.00,500.00,500.00" origBoundary="0.00,0.00,500.00,500.00" projParameter="!"/>

    <edge id=":center_0" function="internal">
        <lane id=":center_0_0" index="0" speed="6.51" length="9.03" shape="248.40,257.20 248.05,254.75 247.00,253.00 245.25,251.95 242.80,251.60"/>
    </edge>
    <edge id=":center_1" function="internal">
        <lane id=":center_1_0" index="0" speed="13.89" length="14.40" shape="248.40,257.20 248.40,242.80"/>
    </edge>
    <edge id=":center_2" function="internal">
        <lane id=":center_2_0" index="0" speed="8.00" length="4.07" shape="248.40,257.20 248.95,253.35 249.04,253.20"/>
    </edge>
    <edge id=":center_12" function="internal">
        <lane id=":center_12_0" index="0" speed="8.00" length="10.13" shape="249.04,253.20 250.60,250.60 253.35,248.95 257.20,248.40"/>
    </edge>
    <edge id=":center_3" function="internal">
        <lane id=":center_3_0" index="0" speed="6.51" length="9.03" shape="257.20,251.60 254.75,251.95 253.00,253.00 251.95,254.75 251.60,257.20"/>
    </edge>
    <edge id=":center_4" function="internal">
        <lane id=":center_4_0" index="0" speed="13.89" length="14.40" shape="257.20,251.60 242.80,251.60"/>
    </edge>
    <edge id=":center_5" function="internal">
        <lane id=":center_5_0" index="0" speed="8.00" length="4.07" shape="257.20,251.60 253.35,251.05 253.20,250.96"/>
    </edge>
    <edge id=":center_13" function="internal">
        <lane id=":center_13_0" index="0" speed="8.00" length="10.13" shape="253.20,250.96 250.60,249.40 248.95,246.65 248.40,242.80"/>
    </edge>
    <edge id=":center_6" function="internal">
        <lane id=":center_6_0" index="0" speed="6.51" length="9.03" shape="251.60,242.80 251.95,245.25 253.00,247.00 254.75,248.05 257.20,248.40"/>
    </edge>
    <edge id=":center_7" function="internal">
        <lane id=":center_7_0" index="0" speed="13.89" length="14.40" shape="251.60,242.80 251.60,257.20"/>
    </edge>
    <edge id=":center_8" function="internal">
        <lane id=":center_8_0" index="0" speed="8.00" length="4.07" shape="251.60,242.80 251.05,246.65 250.96,246.80"/>
    </edge>
    <edge id=":center_14" function="internal">
        <lane id=":center_14_0" index="0" speed="8.00" length="10.13" shape="250.96,246.80 249.40,249.40 246.65,251.05 242.80,251.60"/>
    </edge>
    <edge id=":center_9" function="internal">
        <lane id=":center_9_0" index="0" speed="6.51" length="9.03" shape="242.80,248.40 245.25,248.05 247.00,247.00 248.05,245.25 248.40,242.80"/>
    </edge>
    <edge id=":center_10" function="internal">
        <lane id=":center_10_0" index="0" speed="13.89" length="14.40" shape="242.80,248.40 257.20,248.40"/>
    </edge>
    <edge id=":center_11" function="internal">
        <lane id=":center_11_0" index="0" speed="8.00" length="4.07" shape="242.80,248.40 246.65,248.95 246.80,249.04"/>
    </edge>
    <edge id=":center_15" function="internal">
        <lane id=":center_15_0" index="0" speed="8.00" length="10.13" shape="246.80,249.04 249.40,250.60 251.05,253.35 251.60,257.20"/>
    </edge>

    <edge id="EB_in" from="east" to="center" priority="13">
        <lane id="EB_in_0" index="0" speed="13.89" length="242.80" shape="500.00,251.60 257.20,251.60"/>
    </edge>
    <edge id="EB_out" from="center" to="west" priority="13">
        <lane id="EB_out_0" index="0" speed="13.89" length="242.80" shape="242.80,251.60 0.00,251.60"/>
    </edge>
    <edge id="NB_in" from="north" to="center" priority="13">
        <lane id="NB_in_0" index="0" speed="13.89" length="242.80" shape="251.60,0.00 251.60,242.80"/>
    </edge>
    <edge id="NB_out" from="center" to="south" priority="13">
        <lane id="NB_out_0" index="0" speed="13.89" length="242.80" shape="251.60,257.20 251.60,500.00"/>
    </edge>
    <edge id="SB_in" from="south" to="center" priority="13">
        <lane id="SB_in_0" index="0" speed="13.89" length="242.80" shape="248.40,500.00 248.40,257.20"/>
    </edge>
    <edge id="SB_out" from="center" to="north" priority="13">
        <lane id="SB_out_0" index="0" speed="13.89" length="242.80" shape="248.40,242.80 248.40,0.00"/>
    </edge>
    <edge id="WB_in" from="west" to="center" priority="13">
        <lane id="WB_in_0" index="0" speed="13.89" length="242.80" shape="0.00,248.40 242.80,248.40"/>
    </edge>
    <edge id="WB_out" from="center" to="east" priority="13">
        <lane id="WB_out_0" index="0" speed="13.89" length="242.80" shape="257.20,248.40 500.00,248.40"/>
    </edge>

    <tlLogic id="center" type="static" programID="0" offset="0">
        <phase duration="42" state="GGgrrrGGgrrr"/>
        <phase duration="3"  state="yyyrrryyyrrr"/>
        <phase duration="42" state="rrrGGgrrrGGg"/>
        <phase duration="3"  state="rrryyyrrryyy"/>
    </tlLogic>

    <junction id="center" type="traffic_light" x="250.00" y="250.00" incLanes="SB_in_0 EB_in_0 NB_in_0 WB_in_0" intLanes=":center_0_0 :center_1_0 :center_12_0 :center_3_0 :center_4_0 :center_13_0 :center_6_0 :center_7_0 :center_14_0 :center_9_0 :center_10_0 :center_15_0" shape="246.80,257.20 253.20,257.20 253.64,254.98 254.20,254.20 254.98,253.64 255.98,253.31 257.20,253.20 257.20,246.80 254.98,246.36 254.20,245.80 253.64,245.02 253.31,244.02 253.20,242.80 246.80,242.80 246.36,245.02 245.80,245.80 245.02,246.36 244.02,246.69 242.80,246.80 242.80,253.20 245.02,253.64 245.80,254.20 246.36,254.98 246.69,255.98">
        <request index="0"  response="000000000000" foes="000100010000" cont="0"/>
        <request index="1"  response="100000100000" foes="111100110000" cont="0"/>
        <request index="2"  response="100011100000" foes="110111110000" cont="1"/>
        <request index="3"  response="000010000000" foes="100010000000" cont="0"/>
        <request index="4"  response="000110000111" foes="100110000111" cont="0"/>
        <request index="5"  response="111110000110" foes="111110000110" cont="1"/>
        <request index="6"  response="000000000000" foes="010000000100" cont="0"/>
        <request index="7"  response="100000100000" foes="110000111100" cont="0"/>
        <request index="8"  response="100000100111" foes="110000110111" cont="1"/>
        <request index="9"  response="000000000010" foes="000000100010" cont="0"/>
        <request index="10" response="000111000110" foes="000111100110" cont="0"/>
        <request index="11" response="000110011110" foes="000110111110" cont="1"/>
    </junction>
    <junction id="east" type="dead_end" x="500.00" y="250.00" incLanes="WB_out_0" intLanes="" shape="500.00,250.00 500.00,246.80 500.00,250.00"/>
    <junction id="north" type="dead_end" x="250.00" y="0.00" incLanes="SB_out_0" intLanes="" shape="250.00,0.00 246.80,0.00 250.00,0.00"/>
    <junction id="south" type="dead_end" x="250.00" y="500.00" incLanes="NB_out_0" intLanes="" shape="250.00,500.00 253.20,500.00 250.00,500.00"/>
    <junction id="west" type="dead_end" x="0.00" y="250.00" incLanes="EB_out_0" intLanes="" shape="0.00,250.00 0.00,253.20 0.00,250.00"/>

    <junction id=":center_12_0" type="internal" x="249.04" y="253.20" incLanes=":center_2_0 NB_in_0" intLanes=":center_4_0 :center_5_0 :center_6_0 :center_7_0 :center_10_0 :center_11_0"/>
    <junction id=":center_13_0" type="internal" x="253.20" y="250.96" incLanes=":center_5_0 WB_in_0" intLanes=":center_1_0 :center_2_0 :center_7_0 :center_8_0 :center_9_0 :center_10_0"/>
    <junction id=":center_14_0" type="internal" x="250.96" y="246.80" incLanes=":center_8_0 SB_in_0" intLanes=":center_0_0 :center_1_0 :center_4_0 :center_5_0 :center_10_0 :center_11_0"/>
    <junction id=":center_15_0" type="internal" x="246.80" y="249.04" incLanes=":center_11_0 EB_in_0" intLanes=":center_1_0 :center_2_0 :center_3_0 :center_4_0 :center_7_0 :center_8_0"/>

    <connection from="EB_in" to="NB_out" fromLane="0" toLane="0" via=":center_3_0" tl="center" linkIndex="3" dir="r" state="o"/>
    <connection from="EB_in" to="EB_out" fromLane="0" toLane="0" via=":center_4_0" tl="center" linkIndex="4" dir="s" state="o"/>
    <connection from="EB_in" to="SB_out" fromLane="0" toLane="0" via=":center_5_0" tl="center" linkIndex="5" dir="l" state="o"/>
    <connection from="NB_in" to="WB_out" fromLane="0" toLane="0" via=":center_6_0" tl="center" linkIndex="6" dir="r" state="O"/>
    <connection from="NB_in" to="NB_out" fromLane="0" toLane="0" via=":center_7_0" tl="center" linkIndex="7" dir="s" state="O"/>
    <connection from="NB_in" to="EB_out" fromLane="0" toLane="0" via=":center_8_0" tl="center" linkIndex="8" dir="l" state="o"/>
    <connection from="SB_in" to="EB_out" fromLane="0" toLane="0" via=":center_0_0" tl="center" linkIndex="0" dir="r" state="O"/>
    <connection from="SB_in" to="SB_out" fromLane="0" toLane="0" via=":center_1_0" tl="center" linkIndex="1" dir="s" state="O"/>
    <connection from="SB_in" to="WB_out" fromLane="0" toLane="0" via=":center_2_0" tl="center" linkIndex="2" dir="l" state="o"/>
    <connection from="WB_in" to="SB_out" fromLane="0" toLane="0" via=":center_9_0" tl="center" linkIndex="9" dir="r" state="o"/>
    <connection from="WB_in" to="WB_out" fromLane="0" toLane="0" via=":center_10_0" tl="center" linkIndex="10" dir="s" state="o"/>
    <connection from="WB_in" to="NB_out" fromLane="0" toLane="0" via=":center_11_0" tl="center" linkIndex="11" dir="l" state="o"/>

    <connection from=":center_0" to="EB_out" fromLane="0" toLane="0" dir="r" state="M"/>
    <connection from=":center_1" to="SB_out" fromLane="0" toLane="0" dir="s" state="M"/>
    <connection from=":center_2" to="WB_out" fromLane="0" toLane="0" via=":center_12_0" dir="l" state="m"/>
    <connection from=":center_12" to="WB_out" fromLane="0" toLane="0" dir="l" state="M"/>
    <connection from=":center_3" to="NB_out" fromLane="0" toLane="0" dir="r" state="M"/>
    <connection from=":center_4" to="EB_out" fromLane="0" toLane="0" dir="s" state="M"/>
    <connection from=":center_5" to="SB_out" fromLane="0" toLane="0" via=":center_13_0" dir="l" state="m"/>
    <connection from=":center_13" to="SB_out" fromLane="0" toLane="0" dir="l" state="M"/>
    <connection from=":center_6" to="WB_out" fromLane="0" toLane="0" dir="r" state="M"/>
    <connection from=":center_7" to="NB_out" fromLane="0" toLane="0" dir="s" state="M"/>
    <connection from=":center_8" to="EB_out" fromLane="0" toLane="0" via=":center_14_0" dir="l" state="m"/>
    <connection from=":center_14" to="EB_out" fromLane="0" toLane="0" dir="l" state="M"/>
    <connection from=":center_9" to="SB_out" fromLane="0" toLane="0" dir="r" state="M"/>
    <connection from=":center_10" to="WB_out" fromLane="0" toLane="0" dir="s" state="M"/>
    <connection from=":center_11" to="NB_out" fromLane="0" toLane="0" via=":center_15_0" dir="l" state="m"/>
    <connection from=":center_15" to="NB_out" fromLane="0" toLane="0" dir="l" state="M"/>

</net>
