<?xml version='1.0' encoding='utf-8'?>
<routes><vType id="default" accel="2.6" decel="4.5" sigma="0.5" length="5.0" minGap="2.5" maxSpeed="13.89" /><flow id="flow_SB_L" type="default" from="SB_in" to="WB_out" begin="0" end="3600" vehsPerHour="1380" departLane="best" departSpeed="max" departPos="random_free" /><flow id="flow_SB_T" type="default" from="SB_in" to="SB_out" begin="0" end="3600" vehsPerHour="1380" departLane="best" departSpeed="max" departPos="random_free" /></routes>