<?xml version='1.0' encoding='utf-8'?>
<additional><tlLogic id="center" type="static" programID="Webster" offset="0"><phase duration="41" state="GGGGgrrrrrGGGGgrrrrr" /><phase duration="3" state="yyyygrrrrryyyygrrrrr" /><phase duration="2" state="rrrrrrrrrrrrrrrrrrrr" /><phase duration="36" state="rrrrrGGGGgrrrrrGGGGg" /><phase duration="3" state="rrrrryyyygrrrrryyyyg" /><phase duration="4" state="rrrrrrrrrrrrrrrrrrrr" /></tlLogic></additional>