<?xml version='1.0' encoding='utf-8'?>
<additional><tlLogic id="center" type="static" programID="Webster" offset="0"><phase duration="41" state="GGGrrrGGGrrr" /><phase duration="3" state="yyyrrryyyrrr" /><phase duration="2" state="rrrrrrrrrrrr" /><phase duration="36" state="rrrrrrrrrGGG" /><phase duration="3" state="rrrrrrrrryyy" /><phase duration="4" state="rrrrrrrrrrrr" /></tlLogic></additional>