<?xml version='1.0' encoding='utf-8'?>
<additional><tlLogic id="center" type="static" programID="Webster" offset="0"><phase duration="41" state="GGGGGrrrrrGGGGGrrrrr" /><phase duration="3" state="yyyyyrrrrryyyyyrrrrr" /><phase duration="2" state="rrrrrrrrrrrrrrrrrrrr" /><phase duration="36" state="rrrrrGGGGGrrrrrGGGGG" /><phase duration="3" state="rrrrryyyyyrrrrryyyyy" /><phase duration="4" state="rrrrrrrrrrrrrrrrrrrr" /></tlLogic></additional>