<?xml version='1.0' encoding='utf-8'?>
<routes><vType id="default" accel="2.6" decel="4.5" sigma="0.5" length="5.0" minGap="2.5" maxSpeed="13.89" /><flow id="flow_NB_L" type="default" from="NB_in" to="WB_out" begin="0" end="3600" vehsPerHour="508" departLane="best" departSpeed="max" departPos="random_free" /><flow id="flow_NB_T" type="default" from="NB_in" to="NB_out" begin="0" end="3600" vehsPerHour="2372" departLane="best" departSpeed="max" departPos="random_free" /><flow id="flow_SB_T" type="default" from="SB_in" to="SB_out" begin="0" end="3600" vehsPerHour="2273" departLane="best" departSpeed="max" departPos="random_free" /><flow id="flow_SB_R" type="default" from="SB_in" to="WB_out" begin="0" end="3600" vehsPerHour="487" departLane="best" departSpeed="max" departPos="random_free" /><flow id="flow_WB_L" type="default" from="WB_in" to="SB_out" begin="0" end="3600" vehsPerHour="1740" departLane="best" departSpeed="max" departPos="random_free" /><flow id="flow_WB_R" type="default" from="WB_in" to="NB_out" begin="0" end="3600" vehsPerHour="1740" departLane="best" departSpeed="max" departPos="random_free" /></routes>