<?xml version='1.0' encoding='utf-8'?>
<additional><tlLogic id="center" type="static" programID="Webster" offset="0"><phase duration="39" state="GGGgGGGGrrrrrr" /><phase duration="3" state="yyygyyyyrrrrrr" /><phase duration="2" state="rrrrrrrrrrrrrr" /><phase duration="11" state="rrrrrrrrGGGGgg" /><phase duration="3" state="rrrrrrrryyyygg" /><phase duration="4" state="rrrrrrrrrrrrrr" /></tlLogic></additional>