<?xml version='1.0' encoding='utf-8'?>
<configuration><input><net-file value="ml_network.net.xml" /><route-files value="ml_routes.rou.xml" /><additional-files value="ml_traffic_lights.add.xml" /></input><time><begin value="0" /><end value="3600" /></time><output><summary-output value="sumo_output_ML.xml" /><tripinfo-output value="tripinfo_ML.xml" /></output></configuration>