<?xml version='1.0' encoding='utf-8'?>
<additional><tlLogic id="center" type="static" programID="Webster" offset="0"><phase duration="39" state="GGGGGGGGGrrrr" /><phase duration="3" state="yyyyyyyyyrrrr" /><phase duration="2" state="rrrrrrrrrrrrr" /><phase duration="11" state="rrrrrrrrrGGGG" /><phase duration="3" state="rrrrrrrrryyyy" /><phase duration="4" state="rrrrrrrrrrrrr" /></tlLogic></additional>